12
This is a comment line 
H   0.0   0.0   0.0
H   0.0   0.0   1.116530431239875
H   2.155303635962912   1.9816950408892242   2.145906096665076
H   1.0794805267590006   1.1182522228226612   2.4843925579756077
H   0.5518961041023303   0.8480455383130114   1.458018392941146
H   1.6337093678581902   0.3512815117502238   0.9004777926805481
H   0.8035378786753333   0.9341449428050663   0.3701012865015997
H   1.6706516386967876   2.5795652284149204   1.269238575094756
H   1.7171739247211066   1.612759144948288   0.44712940044855287
H   2.534612329998801   1.7627203474588804   1.1290051924020346
H   1.4338419339611321   1.5277176794295022   1.4964978250212777
H   2.317275386019599   0.9227410176609573   1.782312778556616
